/*--------------------------------*- C++ -*----------------------------------*\
| =========                 |                                                 |
| \\      /  F ield         | OpenFOAM: The Open Source CFD Toolbox           |
|  \\    /   O peration     | Version:  3.0.0                                 |
|   \\  /    A nd           | Web:      www.OpenFOAM.org                      |
|    \\/     M anipulation  |                                                 |
\*---------------------------------------------------------------------------*/
FoamFile
{
    version     2.0;
    format      binary;
    class       polyBoundaryMesh;
    location    "0/polyMesh";
    object      boundary;
}
// * * * * * * * * * * * * * * * * * * * * * * * * * * * * * * * * * * * * * //

4
(
    centerline1
    {
        type            symmetryPlane;
        inGroups        1(symmetryPlane);
        nFaces          824;
        startFace       34840;
    }
    centerline2
    {
        type            symmetryPlane;
        inGroups        1(symmetryPlane);
        nFaces          824;
        startFace       35664;
    }
    base
    {
        type            wall;
        inGroups        1(wall);
        nFaces          448;
        startFace       36488;
    }
    edges
    {
        type            patch;
        nFaces          704;
        startFace       36936;
    }
)

// ************************************************************************* //
